-----------------------------------------------------------------
--AICD Example Data Set
-----------------------------------------------------------------
RUNSPEC
TITLE
 A MULTI-LATERAL PRODUCER AND INJECTOR - MULTI-SEGMENT BRANCHES

DIMENS
 10  5  10  /

SAVE
/

OIL

WATER

GAS

DISGAS

FIELD

TABDIMS
 1  1  15  15  2  15  /

EQLDIMS
 2  /

WELLDIMS
 3  20  1  3  /

VFPPDIMS
 6  3  3  3  1  1  /

VFPIDIMS
 6  3  2  /

WSEGDIMS
 2  30  10  /

START
 1 'JAN' 1997 /

UNIFIN
UNIFOUT

-- RPTRUNSP

GRID        =========================================================

EQUALS
 'DX'     100  /
 'DY'     100  /
 'PERMX'  50   /
 'PERMZ'  5   /
 'DZ'     20   /
 'PORO'   0.2  /
 'TOPS'   7000   1 10  1 5  1 1  /
 'DZ'     100    1 10  1 5  3 3  /
 'PORO'   0.0    1 10  1 5  3 3  /
 /

COPY
  PERMX PERMY /
 /


GRIDFILE
 0 1 /

PROPS       ==========================================================

SWFN
-- Sw    Krw    Pcow
  0.22   0.0    6.30
  0.3    0.07   3.60
  0.4    0.15   2.70
  0.5    0.24   2.25
  0.6    0.33   1.80
  0.8    0.65   0.90
  0.9    0.83   0.45
  1.0    1.0    0.0    /

SGFN
-- Sg    Krg    Pcgo
  0.0   0.0     0.0
  0.04  0.0     0.2
  0.1   0.022   0.5
  0.2   0.1     1.0
  0.3   0.24    1.5
  0.4   0.34    2.0
  0.5   0.42    2.5
  0.6   0.5     3.0
  0.7   0.8125  3.5
  0.78  1.0     3.9    /

SOF3
-- So   Krow    Krog
  0.0   0.0     0.0
  0.2   0.0     0.0
  0.38  1*      0.0
  0.4   0.0048  1*
  0.48  1*      0.02
  0.5   0.0649  1*
  0.58  1*      0.1
  0.6   0.125   1*
  0.68  1*      0.33
  0.7   0.4     1*
  0.74  1*      0.6
  0.78  1.0     1.0   /

PVTW
3000  1.00341  3.0D-6  0.96  0  /


ROCK
3000    4.0D-6   /

DENSITY
45   63.02   0.0702  /

PVDG
 400  5.9   0.013
 800  2.95  0.0135
1200  1.96  0.014
1600  1.47  0.0145
2000  1.18  0.015
2400  0.98  0.0155
2800  0.84  0.016
3200  0.74  0.0165
3600  0.65  0.017
4000  0.59  0.0175
4400  0.54  0.018
4800  0.49  0.0185
5200  0.45  0.019
5600  0.42  0.0195 /

PMAX
 7000 /

PVCO
400  0.165   1.012    1.17   5.0E-5  1*
800  0.335   1.0255   1.14     2*
1200 0.500   1.038    1.11     2*
1600 0.665   1.051    1.08     2*
2000 0.828   1.063    1.06     2*
2400 0.985   1.075    1.03     2*
2800 1.130   1.087    1.00     2*
3200 1.270   1.0985   0.98     2*
3600 1.390   1.11     0.95     2*
4000 1.500   1.12     0.94     2*
4400 1.600   1.13     0.92     2*
4800 1.676   1.14     0.91     2*
5200 1.750   1.148    0.9      2*
5600 1.810   1.155    0.89     2*
  /

RPTPROPS
   /


REGIONS    ===========================================================


FIPNUM

  100*1
  400*2
/

EQLNUM

  100*1
  400*2
/

RPTREGS

     /

SOLUTION    ============================================================

EQUIL
 7020.00 2700.00 7990.00  .00000 7020.00  .00000     0      0       5 /
 7200.00 3700.00 7300.00  .00000 7000.00  .00000     1      0       5 /

RSVD       2 TABLES    3 NODES IN EACH           FIELD   12:00 17 AUG 83
   7000.0  1.0000
   7990.0  1.0000
/
   7000.0  1.0000
   7400.0  1.0000
/

RPTRST
-- Restart File Output Control
-- 
'BASIC=3' 'FREQ=1' /
 
RPTSOL
-- 
-- Initialisation Print Output
-- 
'PRES' 'SOIL' 'SWAT' 'SGAS' 'RS' 'RESTART=1' 'FIP=2' 'EQUIL' 'RSVD' //

SUMMARY      ===========================================================

FOPR
FGPR
FWPR
FWIR
FWCT
FGOR
FOPT
FWPT
FGPT

WBHP
 'PROD' /
WOPR
 'PROD' /
WWPR
 'PROD' /
WGPR
 'PROD' /
WWCT
 'PROD' /
WOPT
 'PROD' /
WWPT
 'PROD' /
WGPT 
 'PROD' /
SPRDA
 'PROD' /
 /
SPRDF
 'PROD' /
 /
SOFR
 'PROD' /
 /
SGFR
 'PROD' /
 /
SWFR
 'PROD' /
 /
SPR 
 'PROD' /
 /
SPRD
 'PROD' /
 /
SPRDF
 'PROD' /
 /


ALL
RUNSUM
SEPARATE
RPTONLY

SCHEDULE     ===========================================================

DEBUG
   1 3   /

DRSDT
   1.0E20  /

RPTSCHED
  'PRES'  'SWAT'  'SGAS'  'RESTART=1'  'RS'  'WELLS=2'  'SUMMARY=2'
  'CPU=2' 'WELSPECS'   'NEWTON=2' /

NOECHO

--PRODUCTION WELL VFP TABLE   1

VFPPROD

   1     7.0000E+03   'LIQ'    'WCT'    'GOR'  'thp'  'iglr' 'field' /

   2.00000E+00  6.00000E+02  1.40000E+03  2.00000E+03
   4.00000E+03  6.00000E+03
 /

   2.00000E+02  5.00000E+02  1.00000E+03
 /

    .00000E+00  4.00000E-01  8.00000E-01
 /

   1.00000E+00  2.00000E+00  4.00000E+00
 /

    .00000E+00
 /

   1   1   1   1   1.97594E+03  1.37517E+03  7.75232E+02  7.31301E+02
                   8.63600E+02  1.07507E+03
                 /
   2   1   1   1   2.24076E+03  2.05768E+03  2.00844E+03  1.95077E+03
                   1.91803E+03  1.99808E+03
                 /
   3   1   1   1   2.71295E+03  2.70532E+03  2.71278E+03  2.72263E+03
                   2.78084E+03  2.87541E+03
                 /

   1   2   1   1   2.34711E+03  1.96200E+03  1.80998E+03  1.63946E+03
                   1.53864E+03  1.65905E+03
                 /
   2   2   1   1   2.61779E+03  2.49181E+03  2.45750E+03  2.45608E+03
                   2.49589E+03  2.53344E+03
                 /
   3   2   1   1   3.09452E+03  3.09009E+03  3.09663E+03  3.10603E+03
                   3.15875E+03  3.24354E+03
                 /

   1   3   1   1   2.85373E+03  2.68696E+03  2.63428E+03  2.62542E+03
                   2.66829E+03  2.70294E+03
                 /
   2   3   1   1   3.14219E+03  3.09125E+03  3.08104E+03  3.08301E+03
                   3.12402E+03  3.20092E+03
                 /
   3   3   1   1   3.63367E+03  3.63377E+03  3.64044E+03  3.64886E+03
                   3.69552E+03  3.76936E+03
                 /

   1   1   2   1   1.90703E+03  4.23900E+02  4.91041E+02  5.61854E+02
                   8.41860E+02  1.14254E+03
                 /
   2   1   2   1   2.13732E+03  1.51748E+03  1.10210E+03  1.13989E+03
                   1.31168E+03  1.53169E+03
                 /
   3   1   2   1   2.52712E+03  2.36101E+03  2.32094E+03  2.26533E+03
                   2.32880E+03  2.47300E+03
                 /

   1   2   2   1   2.24180E+03  1.37824E+03  7.45545E+02  7.21454E+02
                   9.51216E+02  1.21802E+03
                 /
   2   2   2   1   2.47044E+03  2.06424E+03  1.91696E+03  1.78107E+03
                   1.76738E+03  1.92943E+03
                 /
   3   2   2   1   2.87369E+03  2.74718E+03  2.72192E+03  2.72627E+03
                   2.78577E+03  2.89035E+03
                 /

   1   3   2   1   2.75731E+03  2.35384E+03  2.23030E+03  2.18779E+03
                   2.01332E+03  2.05525E+03
                 /
   2   3   2   1   3.02294E+03  2.83361E+03  2.77281E+03  2.76184E+03
                   2.80340E+03  2.86235E+03
                 /
   3   3   2   1   3.47670E+03  3.41854E+03  3.40882E+03  3.41186E+03
                   3.45913E+03  3.54604E+03
                 /

   1   1   3   1   1.87259E+03  3.91529E+02  5.70235E+02  7.19731E+02
                   1.21992E+03  1.71171E+03
                 /
   2   1   3   1   2.11457E+03  8.41615E+02  9.39654E+02  1.03956E+03
                   1.43521E+03  1.86682E+03
                 /
   3   1   3   1   2.50409E+03  1.83217E+03  1.79926E+03  1.85238E+03
                   2.09347E+03  2.40294E+03
                 /

   1   2   3   1   2.22684E+03  5.02107E+02  5.73039E+02  6.81812E+02
                   1.06856E+03  1.47815E+03
                 /
   2   2   3   1   2.45705E+03  1.54829E+03  1.10263E+03  1.17176E+03
                   1.46382E+03  1.80211E+03
                 /
   3   2   3   1   2.83378E+03  2.42600E+03  2.30007E+03  2.22995E+03
                   2.38437E+03  2.65017E+03
                 /

   1   3   3   1   2.73870E+03  1.91960E+03  1.48679E+03  1.24203E+03
                   1.23967E+03  1.44955E+03
                 /
   2   3   3   1   2.98935E+03  2.50931E+03  2.37089E+03  2.32059E+03
                   2.18865E+03  2.28214E+03
                 /
   3   3   3   1   3.40018E+03  3.17167E+03  3.10777E+03  3.09743E+03
                   3.14591E+03  3.22270E+03
                 /


--INJECTION WELL VFP TABLE   1

VFPINJ

  1     7.0000E+03   'WAT'   /

  2.00000E+00  6.00000E+02  1.40000E+03  2.00000E+03
  4.00000E+03  6.00000E+03
/

  5.00000E+02
/

   1  3.49209E+03  3.48640E+03  3.46590E+03  3.44178E+03
      3.30981E+03  3.10032E+03
    /

--INJECTION WELL VFP TABLE   2

VFPINJ

  2     6.90000E+03   'GAS'   /

  1.00000E+00  3.00000E+02  7.00000E+02  1.00000E+03
  2.00000E+03  3.00000E+03
/

  1.00000E+03  2.00000E+03  3.00000E+03
/

   1  1.31963E+03  1.31781E+03  1.31049E+03  1.30133E+03
      1.24694E+03  1.15029E+03
    /
   2  2.73750E+03  2.73671E+03  2.73365E+03  2.72991E+03
      2.70847E+03  2.67303E+03
    /
   3  3.92693E+03  3.92631E+03  3.92396E+03  3.92110E+03
      3.90493E+03  3.87853E+03
    /

ECHO

WELSPECS
 'PROD' 'G' 1 1 7030 'OIL' 0.0  'STD'  'STOP' 'YES' 0 'AVG' 0 /
 'WINJ' 'G' 10 5 7030 'WAT' 0.0  'STD'  'STOP' 'YES' 0 'AVG' 0 /
/

COMPDAT

 'PROD' 1 1 8 8   3*  0.2   3*  'X' /
 'PROD' 2 1 8 8   3*  0.2   3*  'X' /
 'PROD' 3 1 8 8   3*  0.2   3*  'X' /
 'PROD' 4 1 8 8   3*  0.2   3*  'X' /
 'PROD' 5 1 8 8   3*  0.2   3*  'X' /

 'WINJ' 10 5 2 2   3*  0.2   3*  'X' /
 'WINJ' 9 5 2 2   3*  0.2   3*  'X' /
 'WINJ' 8 5 2 2   3*  0.2   3*  'X' /
 'WINJ' 7 5 2 2   3*  0.2   3*  'X' /
 'WINJ' 6 5 2 2   3*  0.2   3*  'X' /

 'WINJ' 10 5 10 10   3*  0.2   3*  'X' /
 'WINJ' 9 5 10 10   3*  0.2   3*  'X' /
 'WINJ' 8 5 10 10   3*  0.2   3*  'X' /
 'WINJ' 7 5 10 10   3*  0.2   3*  'X' /
 'WINJ' 6 5 10 10   3*  0.2   3*  'X' /
/

WELSEGS

-- Name    Dep 1   Tlen 1  Vol 1
  'PROD'   7010      10    0.31   'INC' 1* 1* 10 10 /

-- First   Last   Branch   Outlet  Length   Depth  Diam  Ruff  Area  Vol
-- Seg     Seg    Num      Seg              Chang
-- Main Stem
    2       12     1        1         20     20    0.2   1.E-3  1*   1* /
-- Branch
    13      13     2        12        50      0    0.2   1.E-3  1*   1* /
    14      17     2        13       100      0    0.2   1.E-3  1*   1* /
-- ICD segments
    18      18     3        13       0.5      0    0.2   1.E-3  1*   1* /
    19      19     4        14       0.5      0    0.2   1.E-3  1*   1* /
    20      20     5        15       0.5      0    0.2   1.E-3  1*   1* /
    21      21     6        16       0.5      0    0.2   1.E-3  1*   1* /
    22      22     7        17       0.5      0    0.2   1.E-3  1*   1* /    
 /

COMPSEGS

-- Name
  'PROD' /

-- I  J  K  Brn  Start   End     Dirn   End
--          No   Length  Length  Penet  Range
-- 
   1  1  8  3      255     1*     'Y'    1  /
   2  1  8  4      330     1*     'Y'    1  /
   3  1  8  5      430     1*     'Y'    1  /
   4  1  8  6      530     1*     'Y'    1  /
   5  1  8  7      630     1*     'Y'    1  /   
 /

WELSEGS

-- Name    Dep 1   Tlen 1  Vol 1
  'WINJ'   7010      10    0.31   'INC' /

-- First   Last   Branch   Outlet  Length   Depth  Diam  Ruff  Area  Vol
-- Seg     Seg    Num      Seg              Chang
-- Main Stem
    2       14     1        1         20     20    0.2   1.E-3  1*   1* /
-- Top Branch
    15      15     2        2         50      0    0.2   1.E-3  1*   1* /
    16      19     2        15       100      0    0.2   1.E-3  1*   1* /
-- Bottom Branch
    20      20     3        14        50      0    0.2   1.E-3  1*   1* /
    21      24     3        20       100      0    0.2   1.E-3  1*   1* /
 /

COMPSEGS

-- Name
  'WINJ' /

-- I  J  K  Brn  Start   End     Dirn   End
--          No   Length  Length  Penet  Range
-- Top Branch
   10  5  2  2      30      1*     'X'    6  /
-- Bottom Branch
   10  5 10  3      270     1*     'X'    6  /
 /

WEFAC
 '*'  1.0  /
 /

WCONPROD
 'PROD' 'OPEN' 'ORAT'  1000 3* 1*  1000  0.0  1 /
 /

WCONINJE
 'WINJ' 'WAT' 'OPEN' 'RESV'  1*  2000  3500  1*  1 /
 /

WVFPEXP
 '*' 'EXP' NO YES1 /
 /
WSEGINIT
PROD 1 2 3900 0.3 0 1* 1* /
/
WSEGAICD
--Well  Segments ICD      ICD    unused  scale  max   flow  visc
--Name  From To  strength length param   factor absol rate  fnc
--                                              qICD  exp   exp
 PROD   18   18   0.0002  1*    5*      1*      1*    2    0.25/
 PROD   19   19   0.0002  1*    5*      1*      1*    2    0.25/
 PROD   20   20   0.0002  1*    5*      1*      1*    2    0.25/
 PROD   21   21   0.0002  1*    5*      1*      1*    2    0.25/
 PROD   22   22   0.0002  1*    5*      1*      1*    2    0.25/
/
--ACTIONS
--ACT1 'PROD' 2 SOFR > 100 3 1* /

--WTMULT
--'PROD' ORAT 0.9 /
--/
--ENDACTIO

WSEGEXSS
PROD 2 WIMPR 100 3 /
/

TUNING
 1 1 /
 /
 4*  16 /

TSTEP
 240*30 
/


END
