-- ========================================================================================
-- Example data set for reservoir optimization:
--     Three wells located symmetrically in dipping reservoir.
--     Asymmetric permeability distribution.
--     Optimize water injection rate.
-- ========================================================================================
 
RUNSPEC
 
NOECHO
 
TITLE
 Reservoir Optimization Test Model 1
 
DIMENS
  50 50 1 /
 
-- Increase allowable warnings
MESSAGES
 8* 1000000 /
 
BLACKOIL

RESOPT
 
OIL
WATER
GAS
 
METRIC
 
TABDIMS
  1  1  32  21
/
 
START
  1 'JAN' 1990 /
 
NOINSPEC

NORSSPEC

-- ========================================================================================
GRID
-- ========================================================================================
 
INIT
 
GRIDFILE
 2 0 /

SPECGRID
  50  50  1  1  F /
 
COORDSYS
  1  1 /
 
COORD

       0.           0.      2370.00           0.           0.      2370.00
  100.000           0.      2370.00      100.000           0.      2370.00
  200.000           0.      2370.00      200.000           0.      2370.00
  300.000           0.      2370.00      300.000           0.      2370.00
  400.000           0.      2370.00      400.000           0.      2370.00
  500.000           0.      2370.00      500.000           0.      2370.00
  600.000           0.      2370.00      600.000           0.      2370.00
  700.000           0.      2370.00      700.000           0.      2370.00
  800.000           0.      2370.00      800.000           0.      2370.00
  900.000           0.      2370.00      900.000           0.      2370.00
  1000.00           0.      2370.00      1000.00           0.      2370.00
  1100.00           0.      2370.00      1100.00           0.      2370.00
  1200.00           0.      2370.00      1200.00           0.      2370.00
  1300.00           0.      2370.00      1300.00           0.      2370.00
  1400.00           0.      2370.00      1400.00           0.      2370.00
  1500.00           0.      2370.00      1500.00           0.      2370.00
  1600.00           0.      2370.00      1600.00           0.      2370.00
  1700.00           0.      2370.00      1700.00           0.      2370.00
  1800.00           0.      2370.00      1800.00           0.      2370.00
  1900.00           0.      2370.00      1900.00           0.      2370.00
  2000.00           0.      2370.00      2000.00           0.      2370.00
  2100.00           0.      2370.00      2100.00           0.      2370.00
  2200.00           0.      2370.00      2200.00           0.      2370.00
  2300.00           0.      2370.00      2300.00           0.      2370.00
  2400.00           0.      2370.00      2400.00           0.      2370.00
  2500.00           0.      2370.00      2500.00           0.      2370.00
  2600.00           0.      2370.00      2600.00           0.      2370.00
  2700.00           0.      2370.00      2700.00           0.      2370.00
  2800.00           0.      2370.00      2800.00           0.      2370.00
  2900.00           0.      2370.00      2900.00           0.      2370.00
  3000.00           0.      2370.00      3000.00           0.      2370.00
  3100.00           0.      2370.00      3100.00           0.      2370.00
  3200.00           0.      2370.00      3200.00           0.      2370.00
  3300.00           0.      2370.00      3300.00           0.      2370.00
  3400.00           0.      2370.00      3400.00           0.      2370.00
  3500.00           0.      2370.00      3500.00           0.      2370.00
  3600.00           0.      2370.00      3600.00           0.      2370.00
  3700.00           0.      2370.00      3700.00           0.      2370.00
  3800.00           0.      2370.00      3800.00           0.      2370.00
  3900.00           0.      2370.00      3900.00           0.      2370.00
  4000.00           0.      2370.00      4000.00           0.      2370.00
  4100.00           0.      2370.00      4100.00           0.      2370.00
  4200.00           0.      2370.00      4200.00           0.      2370.00
  4300.00           0.      2370.00      4300.00           0.      2370.00
  4400.00           0.      2370.00      4400.00           0.      2370.00
  4500.00           0.      2370.00      4500.00           0.      2370.00
  4600.00           0.      2370.00      4600.00           0.      2370.00
  4700.00           0.      2370.00      4700.00           0.      2370.00
  4800.00           0.      2370.00      4800.00           0.      2370.00
  4900.00           0.      2370.00      4900.00           0.      2370.00
  5000.00           0.      2370.00      5000.00           0.      2370.00
 
       0.      40.0000      2378.44           0.      40.0000      2378.44
  100.000      40.0000      2378.44      100.000      40.0000      2378.44
  200.000      40.0000      2378.44      200.000      40.0000      2378.44
  300.000      40.0000      2378.44      300.000      40.0000      2378.44
  400.000      40.0000      2378.44      400.000      40.0000      2378.44
  500.000      40.0000      2378.44      500.000      40.0000      2378.44
  600.000      40.0000      2378.44      600.000      40.0000      2378.44
  700.000      40.0000      2378.44      700.000      40.0000      2378.44
  800.000      40.0000      2378.44      800.000      40.0000      2378.44
  900.000      40.0000      2378.44      900.000      40.0000      2378.44
  1000.00      40.0000      2378.44      1000.00      40.0000      2378.44
  1100.00      40.0000      2378.44      1100.00      40.0000      2378.44
  1200.00      40.0000      2378.44      1200.00      40.0000      2378.44
  1300.00      40.0000      2378.44      1300.00      40.0000      2378.44
  1400.00      40.0000      2378.44      1400.00      40.0000      2378.44
  1500.00      40.0000      2378.44      1500.00      40.0000      2378.44
  1600.00      40.0000      2378.44      1600.00      40.0000      2378.44
  1700.00      40.0000      2378.44      1700.00      40.0000      2378.44
  1800.00      40.0000      2378.44      1800.00      40.0000      2378.44
  1900.00      40.0000      2378.44      1900.00      40.0000      2378.44
  2000.00      40.0000      2378.44      2000.00      40.0000      2378.44
  2100.00      40.0000      2378.44      2100.00      40.0000      2378.44
  2200.00      40.0000      2378.44      2200.00      40.0000      2378.44
  2300.00      40.0000      2378.44      2300.00      40.0000      2378.44
  2400.00      40.0000      2378.44      2400.00      40.0000      2378.44
  2500.00      40.0000      2378.44      2500.00      40.0000      2378.44
  2600.00      40.0000      2378.44      2600.00      40.0000      2378.44
  2700.00      40.0000      2378.44      2700.00      40.0000      2378.44
  2800.00      40.0000      2378.44      2800.00      40.0000      2378.44
  2900.00      40.0000      2378.44      2900.00      40.0000      2378.44
  3000.00      40.0000      2378.44      3000.00      40.0000      2378.44
  3100.00      40.0000      2378.44      3100.00      40.0000      2378.44
  3200.00      40.0000      2378.44      3200.00      40.0000      2378.44
  3300.00      40.0000      2378.44      3300.00      40.0000      2378.44
  3400.00      40.0000      2378.44      3400.00      40.0000      2378.44
  3500.00      40.0000      2378.44      3500.00      40.0000      2378.44
  3600.00      40.0000      2378.44      3600.00      40.0000      2378.44
  3700.00      40.0000      2378.44      3700.00      40.0000      2378.44
  3800.00      40.0000      2378.44      3800.00      40.0000      2378.44
  3900.00      40.0000      2378.44      3900.00      40.0000      2378.44
  4000.00      40.0000      2378.44      4000.00      40.0000      2378.44
  4100.00      40.0000      2378.44      4100.00      40.0000      2378.44
  4200.00      40.0000      2378.44      4200.00      40.0000      2378.44
  4300.00      40.0000      2378.44      4300.00      40.0000      2378.44
  4400.00      40.0000      2378.44      4400.00      40.0000      2378.44
  4500.00      40.0000      2378.44      4500.00      40.0000      2378.44
  4600.00      40.0000      2378.44      4600.00      40.0000      2378.44
  4700.00      40.0000      2378.44      4700.00      40.0000      2378.44
  4800.00      40.0000      2378.44      4800.00      40.0000      2378.44
  4900.00      40.0000      2378.44      4900.00      40.0000      2378.44
  5000.00      40.0000      2378.44      5000.00      40.0000      2378.44
 
       0.      80.0000      2386.89           0.      80.0000      2386.89
  100.000      80.0000      2386.89      100.000      80.0000      2386.89
  200.000      80.0000      2386.89      200.000      80.0000      2386.89
  300.000      80.0000      2386.89      300.000      80.0000      2386.89
  400.000      80.0000      2386.89      400.000      80.0000      2386.89
  500.000      80.0000      2386.89      500.000      80.0000      2386.89
  600.000      80.0000      2386.89      600.000      80.0000      2386.89
  700.000      80.0000      2386.89      700.000      80.0000      2386.89
  800.000      80.0000      2386.89      800.000      80.0000      2386.89
  900.000      80.0000      2386.89      900.000      80.0000      2386.89
  1000.00      80.0000      2386.89      1000.00      80.0000      2386.89
  1100.00      80.0000      2386.89      1100.00      80.0000      2386.89
  1200.00      80.0000      2386.89      1200.00      80.0000      2386.89
  1300.00      80.0000      2386.89      1300.00      80.0000      2386.89
  1400.00      80.0000      2386.89      1400.00      80.0000      2386.89
  1500.00      80.0000      2386.89      1500.00      80.0000      2386.89
  1600.00      80.0000      2386.89      1600.00      80.0000      2386.89
  1700.00      80.0000      2386.89      1700.00      80.0000      2386.89
  1800.00      80.0000      2386.89      1800.00      80.0000      2386.89
  1900.00      80.0000      2386.89      1900.00      80.0000      2386.89
  2000.00      80.0000      2386.89      2000.00      80.0000      2386.89
  2100.00      80.0000      2386.89      2100.00      80.0000      2386.89
  2200.00      80.0000      2386.89      2200.00      80.0000      2386.89
  2300.00      80.0000      2386.89      2300.00      80.0000      2386.89
  2400.00      80.0000      2386.89      2400.00      80.0000      2386.89
  2500.00      80.0000      2386.89      2500.00      80.0000      2386.89
  2600.00      80.0000      2386.89      2600.00      80.0000      2386.89
  2700.00      80.0000      2386.89      2700.00      80.0000      2386.89
  2800.00      80.0000      2386.89      2800.00      80.0000      2386.89
  2900.00      80.0000      2386.89      2900.00      80.0000      2386.89
  3000.00      80.0000      2386.89      3000.00      80.0000      2386.89
  3100.00      80.0000      2386.89      3100.00      80.0000      2386.89
  3200.00      80.0000      2386.89      3200.00      80.0000      2386.89
  3300.00      80.0000      2386.89      3300.00      80.0000      2386.89
  3400.00      80.0000      2386.89      3400.00      80.0000      2386.89
  3500.00      80.0000      2386.89      3500.00      80.0000      2386.89
  3600.00      80.0000      2386.89      3600.00      80.0000      2386.89
  3700.00      80.0000      2386.89      3700.00      80.0000      2386.89
  3800.00      80.0000      2386.89      3800.00      80.0000      2386.89
  3900.00      80.0000      2386.89      3900.00      80.0000      2386.89
  4000.00      80.0000      2386.89      4000.00      80.0000      2386.89
  4100.00      80.0000      2386.89      4100.00      80.0000      2386.89
  4200.00      80.0000      2386.89      4200.00      80.0000      2386.89
  4300.00      80.0000      2386.89      4300.00      80.0000      2386.89
  4400.00      80.0000      2386.89      4400.00      80.0000      2386.89
  4500.00      80.0000      2386.89      4500.00      80.0000      2386.89
  4600.00      80.0000      2386.89      4600.00      80.0000      2386.89
  4700.00      80.0000      2386.89      4700.00      80.0000      2386.89
  4800.00      80.0000      2386.89      4800.00      80.0000      2386.89
  4900.00      80.0000      2386.89      4900.00      80.0000      2386.89
  5000.00      80.0000      2386.89      5000.00      80.0000      2386.89
 
       0.      120.000      2395.33           0.      120.000      2395.33
  100.000      120.000      2395.33      100.000      120.000      2395.33
  200.000      120.000      2395.33      200.000      120.000      2395.33
  300.000      120.000      2395.33      300.000      120.000      2395.33
  400.000      120.000      2395.33      400.000      120.000      2395.33
  500.000      120.000      2395.33      500.000      120.000      2395.33
  600.000      120.000      2395.33      600.000      120.000      2395.33
  700.000      120.000      2395.33      700.000      120.000      2395.33
  800.000      120.000      2395.33      800.000      120.000      2395.33
  900.000      120.000      2395.33      900.000      120.000      2395.33
  1000.00      120.000      2395.33      1000.00      120.000      2395.33
  1100.00      120.000      2395.33      1100.00      120.000      2395.33
  1200.00      120.000      2395.33      1200.00      120.000      2395.33
  1300.00      120.000      2395.33      1300.00      120.000      2395.33
  1400.00      120.000      2395.33      1400.00      120.000      2395.33
  1500.00      120.000      2395.33      1500.00      120.000      2395.33
  1600.00      120.000      2395.33      1600.00      120.000      2395.33
  1700.00      120.000      2395.33      1700.00      120.000      2395.33
  1800.00      120.000      2395.33      1800.00      120.000      2395.33
  1900.00      120.000      2395.33      1900.00      120.000      2395.33
  2000.00      120.000      2395.33      2000.00      120.000      2395.33
  2100.00      120.000      2395.33      2100.00      120.000      2395.33
  2200.00      120.000      2395.33      2200.00      120.000      2395.33
  2300.00      120.000      2395.33      2300.00      120.000      2395.33
  2400.00      120.000      2395.33      2400.00      120.000      2395.33
  2500.00      120.000      2395.33      2500.00      120.000      2395.33
  2600.00      120.000      2395.33      2600.00      120.000      2395.33
  2700.00      120.000      2395.33      2700.00      120.000      2395.33
  2800.00      120.000      2395.33      2800.00      120.000      2395.33
  2900.00      120.000      2395.33      2900.00      120.000      2395.33
  3000.00      120.000      2395.33      3000.00      120.000      2395.33
  3100.00      120.000      2395.33      3100.00      120.000      2395.33
  3200.00      120.000      2395.33      3200.00      120.000      2395.33
  3300.00      120.000      2395.33      3300.00      120.000      2395.33
  3400.00      120.000      2395.33      3400.00      120.000      2395.33
  3500.00      120.000      2395.33      3500.00      120.000      2395.33
  3600.00      120.000      2395.33      3600.00      120.000      2395.33
  3700.00      120.000      2395.33      3700.00      120.000      2395.33
  3800.00      120.000      2395.33      3800.00      120.000      2395.33
  3900.00      120.000      2395.33      3900.00      120.000      2395.33
  4000.00      120.000      2395.33      4000.00      120.000      2395.33
  4100.00      120.000      2395.33      4100.00      120.000      2395.33
  4200.00      120.000      2395.33      4200.00      120.000      2395.33
  4300.00      120.000      2395.33      4300.00      120.000      2395.33
  4400.00      120.000      2395.33      4400.00      120.000      2395.33
  4500.00      120.000      2395.33      4500.00      120.000      2395.33
  4600.00      120.000      2395.33      4600.00      120.000      2395.33
  4700.00      120.000      2395.33      4700.00      120.000      2395.33
  4800.00      120.000      2395.33      4800.00      120.000      2395.33
  4900.00      120.000      2395.33      4900.00      120.000      2395.33
  5000.00      120.000      2395.33      5000.00      120.000      2395.33
 
       0.      160.000      2403.78           0.      160.000      2403.78
  100.000      160.000      2403.78      100.000      160.000      2403.78
  200.000      160.000      2403.78      200.000      160.000      2403.78
  300.000      160.000      2403.78      300.000      160.000      2403.78
  400.000      160.000      2403.78      400.000      160.000      2403.78
  500.000      160.000      2403.78      500.000      160.000      2403.78
  600.000      160.000      2403.78      600.000      160.000      2403.78
  700.000      160.000      2403.78      700.000      160.000      2403.78
  800.000      160.000      2403.78      800.000      160.000      2403.78
  900.000      160.000      2403.78      900.000      160.000      2403.78
  1000.00      160.000      2403.78      1000.00      160.000      2403.78
  1100.00      160.000      2403.78      1100.00      160.000      2403.78
  1200.00      160.000      2403.78      1200.00      160.000      2403.78
  1300.00      160.000      2403.78      1300.00      160.000      2403.78
  1400.00      160.000      2403.78      1400.00      160.000      2403.78
  1500.00      160.000      2403.78      1500.00      160.000      2403.78
  1600.00      160.000      2403.78      1600.00      160.000      2403.78
  1700.00      160.000      2403.78      1700.00      160.000      2403.78
  1800.00      160.000      2403.78      1800.00      160.000      2403.78
  1900.00      160.000      2403.78      1900.00      160.000      2403.78
  2000.00      160.000      2403.78      2000.00      160.000      2403.78
  2100.00      160.000      2403.78      2100.00      160.000      2403.78
  2200.00      160.000      2403.78      2200.00      160.000      2403.78
  2300.00      160.000      2403.78      2300.00      160.000      2403.78
  2400.00      160.000      2403.78      2400.00      160.000      2403.78
  2500.00      160.000      2403.78      2500.00      160.000      2403.78
  2600.00      160.000      2403.78      2600.00      160.000      2403.78
  2700.00      160.000      2403.78      2700.00      160.000      2403.78
  2800.00      160.000      2403.78      2800.00      160.000      2403.78
  2900.00      160.000      2403.78      2900.00      160.000      2403.78
  3000.00      160.000      2403.78      3000.00      160.000      2403.78
  3100.00      160.000      2403.78      3100.00      160.000      2403.78
  3200.00      160.000      2403.78      3200.00      160.000      2403.78
  3300.00      160.000      2403.78      3300.00      160.000      2403.78
  3400.00      160.000      2403.78      3400.00      160.000      2403.78
  3500.00      160.000      2403.78      3500.00      160.000      2403.78
  3600.00      160.000      2403.78      3600.00      160.000      2403.78
  3700.00      160.000      2403.78      3700.00      160.000      2403.78
  3800.00      160.000      2403.78      3800.00      160.000      2403.78
  3900.00      160.000      2403.78      3900.00      160.000      2403.78
  4000.00      160.000      2403.78      4000.00      160.000      2403.78
  4100.00      160.000      2403.78      4100.00      160.000      2403.78
  4200.00      160.000      2403.78      4200.00      160.000      2403.78
  4300.00      160.000      2403.78      4300.00      160.000      2403.78
  4400.00      160.000      2403.78      4400.00      160.000      2403.78
  4500.00      160.000      2403.78      4500.00      160.000      2403.78
  4600.00      160.000      2403.78      4600.00      160.000      2403.78
  4700.00      160.000      2403.78      4700.00      160.000      2403.78
  4800.00      160.000      2403.78      4800.00      160.000      2403.78
  4900.00      160.000      2403.78      4900.00      160.000      2403.78
  5000.00      160.000      2403.78      5000.00      160.000      2403.78
 
       0.      200.000      2412.22           0.      200.000      2412.22
  100.000      200.000      2412.22      100.000      200.000      2412.22
  200.000      200.000      2412.22      200.000      200.000      2412.22
  300.000      200.000      2412.22      300.000      200.000      2412.22
  400.000      200.000      2412.22      400.000      200.000      2412.22
  500.000      200.000      2412.22      500.000      200.000      2412.22
  600.000      200.000      2412.22      600.000      200.000      2412.22
  700.000      200.000      2412.22      700.000      200.000      2412.22
  800.000      200.000      2412.22      800.000      200.000      2412.22
  900.000      200.000      2412.22      900.000      200.000      2412.22
  1000.00      200.000      2412.22      1000.00      200.000      2412.22
  1100.00      200.000      2412.22      1100.00      200.000      2412.22
  1200.00      200.000      2412.22      1200.00      200.000      2412.22
  1300.00      200.000      2412.22      1300.00      200.000      2412.22
  1400.00      200.000      2412.22      1400.00      200.000      2412.22
  1500.00      200.000      2412.22      1500.00      200.000      2412.22
  1600.00      200.000      2412.22      1600.00      200.000      2412.22
  1700.00      200.000      2412.22      1700.00      200.000      2412.22
  1800.00      200.000      2412.22      1800.00      200.000      2412.22
  1900.00      200.000      2412.22      1900.00      200.000      2412.22
  2000.00      200.000      2412.22      2000.00      200.000      2412.22
  2100.00      200.000      2412.22      2100.00      200.000      2412.22
  2200.00      200.000      2412.22      2200.00      200.000      2412.22
  2300.00      200.000      2412.22      2300.00      200.000      2412.22
  2400.00      200.000      2412.22      2400.00      200.000      2412.22
  2500.00      200.000      2412.22      2500.00      200.000      2412.22
  2600.00      200.000      2412.22      2600.00      200.000      2412.22
  2700.00      200.000      2412.22      2700.00      200.000      2412.22
  2800.00      200.000      2412.22      2800.00      200.000      2412.22
  2900.00      200.000      2412.22      2900.00      200.000      2412.22
  3000.00      200.000      2412.22      3000.00      200.000      2412.22
  3100.00      200.000      2412.22      3100.00      200.000      2412.22
  3200.00      200.000      2412.22      3200.00      200.000      2412.22
  3300.00      200.000      2412.22      3300.00      200.000      2412.22
  3400.00      200.000      2412.22      3400.00      200.000      2412.22
  3500.00      200.000      2412.22      3500.00      200.000      2412.22
  3600.00      200.000      2412.22      3600.00      200.000      2412.22
  3700.00      200.000      2412.22      3700.00      200.000      2412.22
  3800.00      200.000      2412.22      3800.00      200.000      2412.22
  3900.00      200.000      2412.22      3900.00      200.000      2412.22
  4000.00      200.000      2412.22      4000.00      200.000      2412.22
  4100.00      200.000      2412.22      4100.00      200.000      2412.22
  4200.00      200.000      2412.22      4200.00      200.000      2412.22
  4300.00      200.000      2412.22      4300.00      200.000      2412.22
  4400.00      200.000      2412.22      4400.00      200.000      2412.22
  4500.00      200.000      2412.22      4500.00      200.000      2412.22
  4600.00      200.000      2412.22      4600.00      200.000      2412.22
  4700.00      200.000      2412.22      4700.00      200.000      2412.22
  4800.00      200.000      2412.22      4800.00      200.000      2412.22
  4900.00      200.000      2412.22      4900.00      200.000      2412.22
  5000.00      200.000      2412.22      5000.00      200.000      2412.22
 
       0.      240.000      2420.67           0.      240.000      2420.67
  100.000      240.000      2420.67      100.000      240.000      2420.67
  200.000      240.000      2420.67      200.000      240.000      2420.67
  300.000      240.000      2420.67      300.000      240.000      2420.67
  400.000      240.000      2420.67      400.000      240.000      2420.67
  500.000      240.000      2420.67      500.000      240.000      2420.67
  600.000      240.000      2420.67      600.000      240.000      2420.67
  700.000      240.000      2420.67      700.000      240.000      2420.67
  800.000      240.000      2420.67      800.000      240.000      2420.67
  900.000      240.000      2420.67      900.000      240.000      2420.67
  1000.00      240.000      2420.67      1000.00      240.000      2420.67
  1100.00      240.000      2420.67      1100.00      240.000      2420.67
  1200.00      240.000      2420.67      1200.00      240.000      2420.67
  1300.00      240.000      2420.67      1300.00      240.000      2420.67
  1400.00      240.000      2420.67      1400.00      240.000      2420.67
  1500.00      240.000      2420.67      1500.00      240.000      2420.67
  1600.00      240.000      2420.67      1600.00      240.000      2420.67
  1700.00      240.000      2420.67      1700.00      240.000      2420.67
  1800.00      240.000      2420.67      1800.00      240.000      2420.67
  1900.00      240.000      2420.67      1900.00      240.000      2420.67
  2000.00      240.000      2420.67      2000.00      240.000      2420.67
  2100.00      240.000      2420.67      2100.00      240.000      2420.67
  2200.00      240.000      2420.67      2200.00      240.000      2420.67
  2300.00      240.000      2420.67      2300.00      240.000      2420.67
  2400.00      240.000      2420.67      2400.00      240.000      2420.67
  2500.00      240.000      2420.67      2500.00      240.000      2420.67
  2600.00      240.000      2420.67      2600.00      240.000      2420.67
  2700.00      240.000      2420.67      2700.00      240.000      2420.67
  2800.00      240.000      2420.67      2800.00      240.000      2420.67
  2900.00      240.000      2420.67      2900.00      240.000      2420.67
  3000.00      240.000      2420.67      3000.00      240.000      2420.67
  3100.00      240.000      2420.67      3100.00      240.000      2420.67
  3200.00      240.000      2420.67      3200.00      240.000      2420.67
  3300.00      240.000      2420.67      3300.00      240.000      2420.67
  3400.00      240.000      2420.67      3400.00      240.000      2420.67
  3500.00      240.000      2420.67      3500.00      240.000      2420.67
  3600.00      240.000      2420.67      3600.00      240.000      2420.67
  3700.00      240.000      2420.67      3700.00      240.000      2420.67
  3800.00      240.000      2420.67      3800.00      240.000      2420.67
  3900.00      240.000      2420.67      3900.00      240.000      2420.67
  4000.00      240.000      2420.67      4000.00      240.000      2420.67
  4100.00      240.000      2420.67      4100.00      240.000      2420.67
  4200.00      240.000      2420.67      4200.00      240.000      2420.67
  4300.00      240.000      2420.67      4300.00      240.000      2420.67
  4400.00      240.000      2420.67      4400.00      240.000      2420.67
  4500.00      240.000      2420.67      4500.00      240.000      2420.67
  4600.00      240.000      2420.67      4600.00      240.000      2420.67
  4700.00      240.000      2420.67      4700.00      240.000      2420.67
  4800.00      240.000      2420.67      4800.00      240.000      2420.67
  4900.00      240.000      2420.67      4900.00      240.000      2420.67
  5000.00      240.000      2420.67      5000.00      240.000      2420.67
 
       0.      280.000      2429.11           0.      280.000      2429.11
  100.000      280.000      2429.11      100.000      280.000      2429.11
  200.000      280.000      2429.11      200.000      280.000      2429.11
  300.000      280.000      2429.11      300.000      280.000      2429.11
  400.000      280.000      2429.11      400.000      280.000      2429.11
  500.000      280.000      2429.11      500.000      280.000      2429.11
  600.000      280.000      2429.11      600.000      280.000      2429.11
  700.000      280.000      2429.11      700.000      280.000      2429.11
  800.000      280.000      2429.11      800.000      280.000      2429.11
  900.000      280.000      2429.11      900.000      280.000      2429.11
  1000.00      280.000      2429.11      1000.00      280.000      2429.11
  1100.00      280.000      2429.11      1100.00      280.000      2429.11
  1200.00      280.000      2429.11      1200.00      280.000      2429.11
  1300.00      280.000      2429.11      1300.00      280.000      2429.11
  1400.00      280.000      2429.11      1400.00      280.000      2429.11
  1500.00      280.000      2429.11      1500.00      280.000      2429.11
  1600.00      280.000      2429.11      1600.00      280.000      2429.11
  1700.00      280.000      2429.11      1700.00      280.000      2429.11
  1800.00      280.000      2429.11      1800.00      280.000      2429.11
  1900.00      280.000      2429.11      1900.00      280.000      2429.11
  2000.00      280.000      2429.11      2000.00      280.000      2429.11
  2100.00      280.000      2429.11      2100.00      280.000      2429.11
  2200.00      280.000      2429.11      2200.00      280.000      2429.11
  2300.00      280.000      2429.11      2300.00      280.000      2429.11
  2400.00      280.000      2429.11      2400.00      280.000      2429.11
  2500.00      280.000      2429.11      2500.00      280.000      2429.11
  2600.00      280.000      2429.11      2600.00      280.000      2429.11
  2700.00      280.000      2429.11      2700.00      280.000      2429.11
  2800.00      280.000      2429.11      2800.00      280.000      2429.11
  2900.00      280.000      2429.11      2900.00      280.000      2429.11